/*--------------------------------*- C++ -*----------------------------------*\
 | =========                |                                                 | 
 | \      /  F ield         | OpenFOAM: The Open Source CFD Toolbox           | 
 |  \    /   O peration     | Version:  v2012                                 | 
 |   \  /    A nd           | Website:  www.openfoam.com                      | 
 |    \/     M anipulation  |                                                 | 
 \*---------------------------------------------------------------------------*/ 
 
FoamFile
 { 
     version     2.0; 
     format      ascii; 
     class       dictionary;
     object      blockMeshDict;
 }

vertices
(
  (0 0 0)
  (13 0 0)
  (13 1 0)
  (0 1 0)
  (0 0 1)
  (13 0 1)
  (13 1 1)
  (0 1 1)
);
blocks
(
  hex (0 1 2 3 4 5 6 7) (20 3 1) simpleGrading (1 1 1)
);

edges
(
);

boundary
(
	left
	{
	 type patch ;
	 faces
	(
		 (0 3 7 4 )
	 );
	}

	right
	{
	 type patch ;
	 faces
	(
		 (1 2 6 5 )
	 );
	}

	top
	{
	 type patch ;
	 faces
	(
		 (4 5 6 7 )
	 );
	}

	bottom
	{
	 type patch ;
	 faces
	(
		 (0 1 2 3 )
	 );
	}

	front
	{
	 type patch ;
	 faces
	(
		 (4 5 1 0 )
	 );
	}

	back
	{
	 type patch ;
	 faces
	(
		 (7 6 2 3 )
	 );
	}

);

