/*--------------------------------*- C++ -*----------------------------------*\
 | =========                |                                                 | 
 | \      /  F ield         | OpenFOAM: The Open Source CFD Toolbox           | 
 |  \    /   O peration     | Version:  v2012                                 | 
 |   \  /    A nd           | Website:  www.openfoam.com                      | 
 |    \/     M anipulation  |                                                 | 
 \*---------------------------------------------------------------------------*/ 
 
FoamFile
 { 
     version     2.0; 
     format      ascii; 
     class       dictionary;
     object      blockMeshDict;
 }

vertices
(
  (0 0 0)
  (10 0 0)
  (10 2 0)
  (0 2 0)
  (0 0 1)
  (10 0 1)
  (10 2 1)
  (0 2 1)
);
blocks
(
  hex (0 1 2 3 4 5 6 7) (10 5 1) simpleGrading (1 1 1)
);

edges
(
);

