/*--------------------------------*- C++ -*----------------------------------*\
 | =========                |                                                 | 
 | \      /  F ield         | OpenFOAM: The Open Source CFD Toolbox           | 
 |  \    /   O peration     | Version:  v2012                                 | 
 |   \  /    A nd           | Website:  www.openfoam.com                      | 
 |    \/     M anipulation  |                                                 | 
 \*---------------------------------------------------------------------------*/ 
 FoamFile
 { 
     version     2.0; 
     format      ascii; 
     class       dictionary;
     object      snappyHexMeshDict;
 }
castellatedMesh	true;
snap	false;
addLayers	false;

geometry
{

stl1.stl{
type triSurfaceMesh;
file "stl1.stl";
}

stl2.stl{
type triSurfaceMesh;
file "stl2.stl";
}

stl3.stl{
type triSurfaceMesh;
file "stl3.stl";
}

stl3.stl{
type triSurfaceMesh;
file "stl3.stl";
}

};

castellatedMeshControls
{
maxLocalCells	100000;
maxGlobalCells	1000000;
minRefinementCells	5;
maxLoadUnbalance	0.100000;
nCellsBetweenLevels	3;
resolveFeatureAngle	30;
insidePoint (0.000000 0.000000 0.000000);

}

snapControls
{
nSmoothPatch	3;
tolerance	2.000000;
nSolverIter	30;
nRelaxIter	5;
nFeatureSnapIter	10;
implicitFeatureSnap	false;
explicitFeatureSnap	true;
multiRegionFeatureSnap	false;

}

addLayerControls
{
relativeSizes	true;

layers
{
"stl"
{
nSurfaceLayers 3;
}
"stl2"
{
nSurfaceLayers 5;
}
"stl3"
{
nSurfaceLayers 3;
}

}
expansinoRatio	1.180000;
finalLayerThickness	0.300000;
minThickness	0.100000;
nGrow	1;
featureAngle	60;
slipFeatureAngle	30;
nRelaxIter	5;
nSmoothSurfaceNormals	1;
nSmoothNormals	3;
nSmoothThickness	10;
maxFaceThicknessRatio	0.500000;
maxThicknessToMedialRatio	0.300000;
minMedianAxisAngle	90;
nBufferCellsNoExtrude	0;
nLayerIter	50;

}

meshQualityControls
{
maxNonOrtho	70;
maxBoundarySkewness	20;
maxInternalSkewness	4;
maxConcave	80;
minVol	0.000000;
minTetQuality	0.000000;
minArea	-1;
minTwist	0.050000;
minDeterminant	0.001000;
minFaceWeight	0.050000;
minVolRatio	0.010000;
minTriangleTwist	-1.000000;
nSmoothScale	4;
errorReduction	0.750000;

}

writeFlags
(
);
mergeTolerance	0.000001;

