/*--------------------------------*- C++ -*----------------------------------*\
 | =========                |                                                 | 
 | \      /  F ield         | OpenFOAM: The Open Source CFD Toolbox           | 
 |  \    /   O peration     | Version:  v2012                                 | 
 |   \  /    A nd           | Website:  www.openfoam.com                      | 
 |    \/     M anipulation  |                                                 | 
 \*---------------------------------------------------------------------------*/ 
 
 FoamFile
 { 
     version     2.0; 
     format      ascii; 
     class       dictionary;
     object      snappyHexMeshDict;
 }
castellatedMesh	True;
snap	False;
addLayers	False;

castellatedMeshControls
{

maxLocalCells		100000.000000
maxGlobalCells		2000000.000000
minRefinementCells		10.000000
minRefinementCells		0.100000

}

